[Config Wireless01]
description = Two hosts communicating wirelessly
network = WirelessA
sim-time-limit = 25s

*.host*.networkLayer.arpType = "GlobalARP"

*.hostA.numUdpApps = 1
*.hostA.udpApp[0].typename = "UDPBasicApp"
*.hostA.udpApp[0].destAddresses = "hostB"
*.hostA.udpApp[0].destPort = 5000
*.hostA.udpApp[0].messageLength = 1000B
*.hostA.udpApp[0].sendInterval = exponential(12ms)
*.hostA.udpApp[0].packetName = "UDPData"

*.hostB.numUdpApps = 1
*.hostB.udpApp[0].typename = "UDPSink"
*.hostB.udpApp[0].localPort = 5000

*.host*.wlan[0].typename = "IdealWirelessNic"
*.host*.wlan[0].mac.useAck = false
*.host*.wlan[0].mac.fullDuplex = false
*.host*.wlan[0].radio.transmitter.communicationRange = 500m
*.host*.wlan[0].radio.receiver.ignoreInterference = true

*.host*.**.bitrate = 1Mbps